LTspice 24.0.12 for Windows
Circuit: * C:\Users\Corentin SCIASCIA\Documents\Perso\Electronics\simLTspice\resetBtn_5s\rstBtn_5s.asc
Start Time: Thu Aug 21 16:14:23 2025
solver = Normal
Maximum thread count: 16
tnom = 27
temp = 27
method = modified trap
Limiting rise time of source v2 to 0.9
Limiting fall time of source v2 to 0.9
Limiting rise time of source v3 to 0.9
Limiting fall time of source v3 to 0.9
Direct Newton iteration for .op point succeeded.
Total elapsed time: 0.066 seconds.

