LTspice 24.0.12 for Windows
Circuit: * C:\Users\Corentin SCIASCIA\Documents\Perso\Electronics\simLTspice\resetBtn_5s\rstBtn_5s.asc
Start Time: Wed Aug 20 13:40:55 2025
solver = Normal
Maximum thread count: 16
tnom = 27
temp = 27
method = modified trap
Limiting rise time of source v2 to 0.9
Limiting fall time of source v2 to 0.9
Limiting rise time of source v3 to 0.7
Limiting fall time of source v3 to 0.7
WARNING: Node NC_02 is floating.
WARNING: Node NC_03 is floating.
WARNING: Node NC_04 is floating.

WARNING: Less than two connections to node nc_01.  This node is used by m5.
WARNING: Less than two connections to node nc_03.  This node is used by m5.
Direct Newton iteration for .op point succeeded.
Total elapsed time: 0.072 seconds.

